#set relax_naming_rules=1
#set profiler=0
#set double_format=%+.12lg
#set complex_format=%+.12lg%+.12lf%c
#set verbose=0

clock {
	timezone PST+8PDT;
	starttime '2001-08-01 12:00:00';
	stoptime '2001-08-01 12:01:59';
}

module tape;

module powerflow;

module generators;

module connection;

object helics_msg {
	name GLD1;
	configure gld_config.json;
}

object line_configuration {
	name line_config_103_71;
	z11 0;
	z12 0;
	z13 0;
	z21 0;
	z22 0.0011593914772727273+0.0051303688257575775j;
	z23 0;
	z31 0;
	z32 0;
	z33 0;
}

object line_configuration {
	name line_config_103_166;
	z11 0;
	z12 0;
	z13 0;
	z21 0;
	z22 0.012724225568178841+0.056305373522724876j;
	z23 0;
	z31 0;
	z32 0;
	z33 0;
}

object line_configuration {
	name line_config_194_103;
	z11 0;
	z12 0;
	z13 0;
	z21 0;
	z22 0.04182239147726973+0.18506630215908973j;
	z23 0;
	z31 0;
	z32 0;
	z33 0;
}

object line_configuration {
	name line_config_261_105;
	z11 0.00047363727272727274+0.006557389090908496j;
	z12 0.0002076218181818182+0.0021879590909090908j;
	z13 0.0002076218181818182+0.0021879590909090908j;
	z21 0.0002076218181818182+0.0021879590909090908j;
	z22 0.00047363727272727274+0.006557389090908496j;
	z23 0.0002076218181818182+0.0021879590909090908j;
	z31 0.0002076218181818182+0.0021879590909090908j;
	z32 0.0002076218181818182+0.0021879590909090908j;
	z33 0.00047363727272727274+0.006557389090908496j;
}

object line_configuration {
	name line_config_105_191;
	z11 0.0015046544318181817+0.020831562727267626j;
	z12 0.0006595745454545455+0.006950724810604681j;
	z13 0.0006595745454545455+0.006950724810604681j;
	z21 0.0006595745454545455+0.006950724810604681j;
	z22 0.0015046544318181817+0.020831562727267626j;
	z23 0.0006595745454545455+0.006950724810604681j;
	z31 0.0006595745454545455+0.006950724810604681j;
	z32 0.0006595745454545455+0.006950724810604681j;
	z33 0.0015046544318181817+0.020831562727267626j;
}

object line_configuration {
	name line_config_87_106;
	z11 0.0007345102272727274+0.0032502467424242428j;
	z12 0.00021676628787878796+0.0010520182575757576j;
	z13 0.00021676628787878796+0.0010520182575757576j;
	z21 0.00021676628787878796+0.0010520182575757576j;
	z22 0.0007345102272727274+0.0032502467424242428j;
	z23 0.00021676628787878796+0.0010520182575757576j;
	z31 0.00021676628787878796+0.0010520182575757576j;
	z32 0.00021676628787878796+0.0010520182575757576j;
	z33 0.0007345102272727274+0.0032502467424242428j;
}

object line_configuration {
	name line_config_187_50;
	z11 0.0018848028409090914+0.00834035261363258j;
	z12 0;
	z13 0;
	z21 0;
	z22 0;
	z23 0;
	z31 0;
	z32 0;
	z33 0;
}

object line_configuration {
	name line_config_188_52;
	z11 0.0016490798295454546+0.007297265776510045j;
	z12 0;
	z13 0;
	z21 0;
	z22 0;
	z23 0;
	z31 0;
	z32 0;
	z33 0;
}

object line_configuration {
	name line_config_109_104;
	z11 0;
	z12 0;
	z13 0;
	z21 0;
	z22 0.011082350757574567+0.0361567154545423j;
	z23 0;
	z31 0;
	z32 0;
	z33 0;
}

object line_configuration {
	name line_config_190_109;
	z11 0;
	z12 0;
	z13 0;
	z21 0;
	z22 0.04024075757575303+0.13128745454545432j;
	z23 0;
	z31 0;
	z32 0;
	z33 0;
}

object line_configuration {
	name line_config_109_12;
	z11 0;
	z12 0;
	z13 0;
	z21 0;
	z22 0.006759189128783899+0.005019610113636363j;
	z23 0;
	z31 0;
	z32 0;
	z33 0;
}

object line_configuration {
	name line_config_190_39;
	z11 0;
	z12 0;
	z13 0;
	z21 0;
	z22 0.0027009014204545457+0.008811823977272402j;
	z23 0;
	z31 0;
	z32 0;
	z33 0;
}

object line_configuration {
	name line_config_166_190;
	z11 0;
	z12 0;
	z13 0;
	z21 0;
	z22 0.025991104640150503+0.084797259659089j;
	z23 0;
	z31 0;
	z32 0;
	z33 0;
}

object line_configuration {
	name line_config_191_40;
	z11 0.0003785340340909091+0.005240708636360006j;
	z12 0;
	z13 0;
	z21 0;
	z22 0;
	z23 0;
	z31 0;
	z32 0;
	z33 0;
}

object line_configuration {
	name line_config_193_53;
	z11 0.0003426354545454546+0.004743701818181819j;
	z12 0;
	z13 0;
	z21 0;
	z22 0;
	z23 0;
	z31 0;
	z32 0;
	z33 0;
}

object line_configuration {
	name line_config_194_54;
	z11 0;
	z12 0;
	z13 0;
	z21 0;
	z22 0.001771379261363637+0.007838447253782795j;
	z23 0;
	z31 0;
	z32 0;
	z33 0;
}

object line_configuration {
	name line_config_195_55;
	z11 0.00032444352272727276+0.004491839090909092j;
	z12 0.0001422218181818182+0.0014987611742424245j;
	z13 0.0001422218181818182+0.0014987611742424245j;
	z21 0.0001422218181818182+0.0014987611742424245j;
	z22 0.00032444352272727276+0.004491839090909092j;
	z23 0.0001422218181818182+0.0014987611742424245j;
	z31 0.0001422218181818182+0.0014987611742424245j;
	z32 0.0001422218181818182+0.0014987611742424245j;
	z33 0.00032444352272727276+0.004491839090909092j;
}

object line_configuration {
	name line_config_90_194;
	z11 0;
	z12 0;
	z13 0;
	z21 0;
	z22 0.020602280397727112+0.09116618429923994j;
	z23 0;
	z31 0;
	z32 0;
	z33 0;
}

object line_configuration {
	name line_config_197_56;
	z11 0.00036311693181818183+0.005027262727272727j;
	z12 0.00015917454545454548+0.0016774123106060607j;
	z13 0;
	z21 0.00015917454545454548+0.0016774123106060607j;
	z22 0.00036311693181818183+0.005027262727272727j;
	z23 0;
	z31 0;
	z32 0;
	z33 0;
}

object line_configuration {
	name line_config_81_225;
	z11 0.0005575284090909092+0.0024670928030303034j;
	z12 0.0001645359848484849+0.0007985321969696971j;
	z13 0.0001645359848484849+0.0007985321969696971j;
	z21 0.0001645359848484849+0.0007985321969696971j;
	z22 0.0005575284090909092+0.0024670928030303034j;
	z23 0.0001645359848484849+0.0007985321969696971j;
	z31 0.0001645359848484849+0.0007985321969696971j;
	z32 0.0001645359848484849+0.0007985321969696971j;
	z33 0.0005575284090909092+0.0024670928030303034j;
}

object line_configuration {
	name line_config_200_57;
	z11 0.0005820796022727273+0.008058745909086413j;
	z12 0;
	z13 0;
	z21 0;
	z22 0;
	z23 0;
	z31 0;
	z32 0;
	z33 0;
}

object line_configuration {
	name line_config_199_58;
	z11 0.0003611633522727273+0.005000215909090909j;
	z12 0.00015831818181818183+0.0016683877840909093j;
	z13 0;
	z21 0.00015831818181818183+0.0016683877840909093j;
	z22 0.0003611633522727273+0.005000215909090909j;
	z23 0;
	z31 0;
	z32 0;
	z33 0;
}

object line_configuration {
	name line_config_201_41;
	z11 0.0018492102272727276+0.008182853409089046j;
	z12 0;
	z13 0;
	z21 0;
	z22 0;
	z23 0;
	z31 0;
	z32 0;
	z33 0;
}

object line_configuration {
	name line_config_202_201;
	z11 0.0058354045454542605+0.025821974848484263j;
	z12 0.0017221257575757581+0.008357885151510905j;
	z13 0.0017221257575757581+0.008357885151510905j;
	z21 0.0017221257575757581+0.008357885151510905j;
	z22 0.0058354045454542605+0.025821974848484263j;
	z23 0.0017221257575757581+0.008357885151510905j;
	z31 0.0017221257575757581+0.008357885151510905j;
	z32 0.0017221257575757581+0.008357885151510905j;
	z33 0.0058354045454542605+0.025821974848484263j;
}

object line_configuration {
	name line_config_203_59;
	z11 0.010283923749999768+0.007637201249996619j;
	z12 0.0015276737500000003+0.00310263125j;
	z13 0.0015276737500000003+0.00310263125j;
	z21 0.0015276737500000003+0.00310263125j;
	z22 0.010283923749999768+0.007637201249996619j;
	z23 0.0015276737500000003+0.00310263125j;
	z31 0.0015276737500000003+0.00310263125j;
	z32 0.0015276737500000003+0.00310263125j;
	z33 0.010283923749999768+0.007637201249996619j;
}

object line_configuration {
	name line_config_82_226;
	z11 0.0005575284090909092+0.0024670928030303034j;
	z12 0.0001645359848484849+0.0007985321969696971j;
	z13 0.0001645359848484849+0.0007985321969696971j;
	z21 0.0001645359848484849+0.0007985321969696971j;
	z22 0.0005575284090909092+0.0024670928030303034j;
	z23 0.0001645359848484849+0.0007985321969696971j;
	z31 0.0001645359848484849+0.0007985321969696971j;
	z32 0.0001645359848484849+0.0007985321969696971j;
	z33 0.0005575284090909092+0.0024670928030303034j;
}

object line_configuration {
	name line_config_84_202;
	z11 0.0036548886363636365+0.0161730762121205j;
	z12 0.0010786189393939397+0.005234793787877688j;
	z13 0.0010786189393939397+0.005234793787877688j;
	z21 0.0010786189393939397+0.005234793787877688j;
	z22 0.0036548886363636365+0.0161730762121205j;
	z23 0.0010786189393939397+0.005234793787877688j;
	z31 0.0010786189393939397+0.005234793787877688j;
	z32 0.0010786189393939397+0.005234793787877688j;
	z33 0.0036548886363636365+0.0161730762121205j;
}

object line_configuration {
	name line_config_204_203;
	z11 0.042232086325752594+0.03136302352272278j;
	z12 0.006273563598481829+0.01274130321969425j;
	z13 0.006273563598481829+0.01274130321969425j;
	z21 0.006273563598481829+0.01274130321969425j;
	z22 0.042232086325752594+0.03136302352272278j;
	z23 0.006273563598481829+0.01274130321969425j;
	z31 0.006273563598481829+0.01274130321969425j;
	z32 0.006273563598481829+0.01274130321969425j;
	z33 0.042232086325752594+0.03136302352272278j;
}

object line_configuration {
	name line_config_204_61;
	z11 0.010066046837116134+0.007475398238631187j;
	z12 0.001495308200757576+0.0030368983901515154j;
	z13 0.001495308200757576+0.0030368983901515154j;
	z21 0.001495308200757576+0.0030368983901515154j;
	z22 0.010066046837116134+0.007475398238631187j;
	z23 0.001495308200757576+0.0030368983901515154j;
	z31 0.001495308200757576+0.0030368983901515154j;
	z32 0.001495308200757576+0.0030368983901515154j;
	z33 0.010066046837116134+0.007475398238631187j;
}

object line_configuration {
	name line_config_205_62;
	z11 0;
	z12 0;
	z13 0;
	z21 0;
	z22 0.007833871874995407+0.007592748579542187j;
	z23 0;
	z31 0;
	z32 0;
	z33 0;
}

object line_configuration {
	name line_config_206_204;
	z11 0.057307300227268924+0.04255840431817714j;
	z12 0.008512982045451952+0.017289453409087257j;
	z13 0.008512982045451952+0.017289453409087257j;
	z21 0.008512982045451952+0.017289453409087257j;
	z22 0.057307300227268924+0.04255840431817714j;
	z23 0.008512982045451952+0.017289453409087257j;
	z31 0.008512982045451952+0.017289453409087257j;
	z32 0.008512982045451952+0.017289453409087257j;
	z33 0.057307300227268924+0.04255840431817714j;
}

object line_configuration {
	name line_config_206_63;
	z11 0.010142787556815303+0.00753238857954091j;
	z12 0.0015067080113636366+0.0030600508522727276j;
	z13 0.0015067080113636366+0.0030600508522727276j;
	z21 0.0015067080113636366+0.0030600508522727276j;
	z22 0.010142787556815303+0.00753238857954091j;
	z23 0.0015067080113636366+0.0030600508522727276j;
	z31 0.0015067080113636366+0.0030600508522727276j;
	z32 0.0015067080113636366+0.0030600508522727276j;
	z33 0.010142787556815303+0.00753238857954091j;
}

object line_configuration {
	name line_config_207_64;
	z11 0.0013193798295454545+0.005838325776513659j;
	z12 0.0003893711174242425+0.0018897104734848487j;
	z13 0.0003893711174242425+0.0018897104734848487j;
	z21 0.0003893711174242425+0.0018897104734848487j;
	z22 0.0013193798295454545+0.005838325776513659j;
	z23 0.0003893711174242425+0.0018897104734848487j;
	z31 0.0003893711174242425+0.0018897104734848487j;
	z32 0.0003893711174242425+0.0018897104734848487j;
	z33 0.0013193798295454545+0.005838325776513659j;
}

object line_configuration {
	name line_config_209_102;
	z11 0.0019394316477272726+0.026850944090905767j;
	z12 0.0008501618181818182+0.00895917054923934j;
	z13 0.0008501618181818182+0.00895917054923934j;
	z21 0.0008501618181818182+0.00895917054923934j;
	z22 0.0019394316477272726+0.026850944090905767j;
	z23 0.0008501618181818182+0.00895917054923934j;
	z31 0.0008501618181818182+0.00895917054923934j;
	z32 0.0008501618181818182+0.00895917054923934j;
	z33 0.0019394316477272726+0.026850944090905767j;
}

object line_configuration {
	name line_config_92_206;
	z11 0.056138172045450505+0.041690168863632415j;
	z12 0.008339308409088036+0.016936730681815768j;
	z13 0.008339308409088036+0.016936730681815768j;
	z21 0.008339308409088036+0.016936730681815768j;
	z22 0.056138172045450505+0.041690168863632415j;
	z23 0.008339308409088036+0.016936730681815768j;
	z31 0.008339308409088036+0.016936730681815768j;
	z32 0.008339308409088036+0.016936730681815768j;
	z33 0.056138172045450505+0.041690168863632415j;
}

object line_configuration {
	name line_config_214_65;
	z11 0.00043918210227272727+0.006080365909088233j;
	z12 0.00019251818181818185+0.002028794034090909j;
	z13 0.00019251818181818185+0.002028794034090909j;
	z21 0.00019251818181818185+0.002028794034090909j;
	z22 0.00043918210227272727+0.006080365909088233j;
	z23 0.00019251818181818185+0.002028794034090909j;
	z31 0.00019251818181818185+0.002028794034090909j;
	z32 0.00019251818181818185+0.002028794034090909j;
	z33 0.00043918210227272727+0.006080365909088233j;
}

object line_configuration {
	name line_config_216_66;
	z11 0.00037424113636363635+0.005181274545454546j;
	z12 0.00016405090909090914+0.0017288003787878786j;
	z13 0.00016405090909090914+0.0017288003787878786j;
	z21 0.00016405090909090914+0.0017288003787878786j;
	z22 0.00037424113636363635+0.005181274545454546j;
	z23 0.00016405090909090914+0.0017288003787878786j;
	z31 0.00016405090909090914+0.0017288003787878786j;
	z32 0.00016405090909090914+0.0017288003787878786j;
	z33 0.00037424113636363635+0.005181274545454546j;
}

object line_configuration {
	name line_config_95_67;
	z11 0;
	z12 0;
	z13 0;
	z21 0;
	z22 0.11313717477272517+0.08401962068181738j;
	z23 0;
	z31 0;
	z32 0;
	z33 0;
}

object line_configuration {
	name line_config_203_60;
	z11 0;
	z12 0;
	z13 0;
	z21 0;
	z22 0;
	z23 0;
	z31 0;
	z32 0;
	z33 0.0715034489583286+0.07269750842803019j;
}

object line_configuration {
	name line_config_259_163;
	z11 0.00015553977272727274+0.0021534090909090912j;
	z12 6.818181818181818e-05+0.0007185132575757576j;
	z13 6.818181818181818e-05+0.0007185132575757576j;
	z21 6.818181818181818e-05+0.0007185132575757576j;
	z22 0.00015553977272727274+0.0021534090909090912j;
	z23 6.818181818181818e-05+0.0007185132575757576j;
	z31 6.818181818181818e-05+0.0007185132575757576j;
	z32 6.818181818181818e-05+0.0007185132575757576j;
	z33 0.00015553977272727274+0.0021534090909090912j;
}

object line_configuration {
	name line_config_91_224;
	z11 0.0027295250000000004+0.002645511363636364j;
	z12 0.0005419568181818181+0.0010136727272727273j;
	z13 0.0005419568181818181+0.0010136727272727273j;
	z21 0.0005419568181818181+0.0010136727272727273j;
	z22 0.0027295250000000004+0.002645511363636364j;
	z23 0.0005419568181818181+0.0010136727272727273j;
	z31 0.0005419568181818181+0.0010136727272727273j;
	z32 0.0005419568181818181+0.0010136727272727273j;
	z33 0.0027295250000000004+0.002645511363636364j;
}

object line_configuration {
	name line_config_196_198;
	z11 0.003688536742424243+0.03375399015151237j;
	z12 0.0013717407196969698+0.011125557765148715j;
	z13 0.0013717407196969698+0.011125557765148715j;
	z21 0.0013717407196969698+0.011125557765148715j;
	z22 0.003688536742424243+0.03375399015151237j;
	z23 0.0013717407196969698+0.011125557765148715j;
	z31 0.0013717407196969698+0.011125557765148715j;
	z32 0.0013717407196969698+0.011125557765148715j;
	z33 0.003688536742424243+0.03375399015151237j;
}

object line_configuration {
	name line_config_200_196;
	z11 0.025749739488632413+0.11394396399621112j;
	z12 0.007599180018937986+0.036880624753785805j;
	z13 0.007599180018937986+0.036880624753785805j;
	z21 0.007599180018937986+0.036880624753785805j;
	z22 0.025749739488632413+0.11394396399621112j;
	z23 0.007599180018937986+0.036880624753785805j;
	z31 0.007599180018937986+0.036880624753785805j;
	z32 0.007599180018937986+0.036880624753785805j;
	z33 0.025749739488632413+0.11394396399621112j;
}

object line_configuration {
	name line_config_83_165;
	z11 0.0002738420075757576+0.0025059423484848488j;
	z12 0.00010183990530303031+0.0008259766098484849j;
	z13 0.00010183990530303031+0.0008259766098484849j;
	z21 0.00010183990530303031+0.0008259766098484849j;
	z22 0.0002738420075757576+0.0025059423484848488j;
	z23 0.00010183990530303031+0.0008259766098484849j;
	z31 0.00010183990530303031+0.0008259766098484849j;
	z32 0.00010183990530303031+0.0008259766098484849j;
	z33 0.0002738420075757576+0.0025059423484848488j;
}

object line_configuration {
	name line_config_205_200;
	z11 0.012475924715908984+0.05520662907196701j;
	z12 0.0036818546401515156+0.01786891467802774j;
	z13 0.0036818546401515156+0.01786891467802774j;
	z21 0.0036818546401515156+0.01786891467802774j;
	z22 0.012475924715908984+0.05520662907196701j;
	z23 0.0036818546401515156+0.01786891467802774j;
	z31 0.0036818546401515156+0.01786891467802774j;
	z32 0.0036818546401515156+0.01786891467802774j;
	z33 0.012475924715908984+0.05520662907196701j;
}

object line_configuration {
	name line_config_207_205;
	z11 0.007976715056813825+0.035297387518938614j;
	z12 0.002354062405303031+0.011424823731056799j;
	z13 0.002354062405303031+0.011424823731056799j;
	z21 0.002354062405303031+0.011424823731056799j;
	z22 0.007976715056813825+0.035297387518938614j;
	z23 0.002354062405303031+0.011424823731056799j;
	z31 0.002354062405303031+0.011424823731056799j;
	z32 0.002354062405303031+0.011424823731056799j;
	z33 0.007976715056813825+0.035297387518938614j;
}

object line_configuration {
	name line_config_85_207;
	z11 0.005133899999999999+0.02271777999999851j;
	z12 0.0015151000000000003+0.0073531399999963954j;
	z13 0.0015151000000000003+0.0073531399999963954j;
	z21 0.0015151000000000003+0.0073531399999963954j;
	z22 0.005133899999999999+0.02271777999999851j;
	z23 0.0015151000000000003+0.0073531399999963954j;
	z31 0.0015151000000000003+0.0073531399999963954j;
	z32 0.0015151000000000003+0.0073531399999963954j;
	z33 0.005133899999999999+0.02271777999999851j;
}

object line_configuration {
	name line_config_93_209;
	z11 0.0020896084090909093+0.028930103636359082j;
	z12 0.0009159927272727274+0.009652909469693506j;
	z13 0.0009159927272727274+0.009652909469693506j;
	z21 0.0009159927272727274+0.009652909469693506j;
	z22 0.0020896084090909093+0.028930103636359082j;
	z23 0.0009159927272727274+0.009652909469693506j;
	z31 0.0009159927272727274+0.009652909469693506j;
	z32 0.0009159927272727274+0.009652909469693506j;
	z33 0.0020896084090909093+0.028930103636359082j;
}

object line_configuration {
	name line_config_184_185;
	z11 0.0013667590909090912+0.018922436363635664j;
	z12 0.0005991272727272728+0.006313719696964785j;
	z13 0.0005991272727272728+0.006313719696964785j;
	z21 0.0005991272727272728+0.006313719696964785j;
	z22 0.0013667590909090912+0.018922436363635664j;
	z23 0.0005991272727272728+0.006313719696964785j;
	z31 0.0005991272727272728+0.006313719696964785j;
	z32 0.0005991272727272728+0.006313719696964785j;
	z33 0.0013667590909090912+0.018922436363635664j;
}

object line_configuration {
	name line_config_185_101;
	z11 0.005670270852272332+0.07850347590908931j;
	z12 0.002485598181818182+0.026193716950754432j;
	z13 0.002485598181818182+0.026193716950754432j;
	z21 0.002485598181818182+0.026193716950754432j;
	z22 0.005670270852272332+0.07850347590908931j;
	z23 0.002485598181818182+0.026193716950754432j;
	z31 0.002485598181818182+0.026193716950754432j;
	z32 0.002485598181818182+0.026193716950754432j;
	z33 0.005670270852272332+0.07850347590908931j;
}

object line_configuration {
	name line_config_249_184;
	z11 0.002468441079545455+0.034174946818179744j;
	z12 0.001082056363636364+0.011402920359844726j;
	z13 0.001082056363636364+0.011402920359844726j;
	z21 0.001082056363636364+0.011402920359844726j;
	z22 0.002468441079545455+0.034174946818179744j;
	z23 0.001082056363636364+0.011402920359844726j;
	z31 0.001082056363636364+0.011402920359844726j;
	z32 0.001082056363636364+0.011402920359844726j;
	z33 0.002468441079545455+0.034174946818179744j;
}

object line_configuration {
	name line_config_186_187;
	z11 0.0024109038068181815+0.03337835772726986j;
	z12 0.0010568345454545457+0.011137127935605227j;
	z13 0.0010568345454545457+0.011137127935605227j;
	z21 0.0010568345454545457+0.011137127935605227j;
	z22 0.0024109038068181815+0.03337835772726986j;
	z23 0.0010568345454545457+0.011137127935605227j;
	z31 0.0010568345454545457+0.011137127935605227j;
	z32 0.0010568345454545457+0.011137127935605227j;
	z33 0.0024109038068181815+0.03337835772726986j;
}

object line_configuration {
	name line_config_187_188;
	z11 0.013445355681816724+0.1861475727272716j;
	z12 0.005893854545451706+0.06211058522726925j;
	z13 0.005893854545451706+0.06211058522726925j;
	z21 0.005893854545451706+0.06211058522726925j;
	z22 0.013445355681816724+0.1861475727272716j;
	z23 0.005893854545451706+0.06211058522726925j;
	z31 0.005893854545451706+0.06211058522726925j;
	z32 0.005893854545451706+0.06211058522726925j;
	z33 0.013445355681816724+0.1861475727272716j;
}

object line_configuration {
	name line_config_260_218;
	z11 0.00015553977272727274+0.0021534090909090912j;
	z12 6.818181818181818e-05+0.0007185132575757576j;
	z13 6.818181818181818e-05+0.0007185132575757576j;
	z21 6.818181818181818e-05+0.0007185132575757576j;
	z22 0.00015553977272727274+0.0021534090909090912j;
	z23 6.818181818181818e-05+0.0007185132575757576j;
	z31 6.818181818181818e-05+0.0007185132575757576j;
	z32 6.818181818181818e-05+0.0007185132575757576j;
	z33 0.00015553977272727274+0.0021534090909090912j;
}

object line_configuration {
	name line_config_191_193;
	z11 0.007339710340908948+0.10161644636363319j;
	z12 0.003217407272727273+0.033905663446966446j;
	z13 0.003217407272727273+0.033905663446966446j;
	z21 0.003217407272727273+0.033905663446966446j;
	z22 0.007339710340908948+0.10161644636363319j;
	z23 0.003217407272727273+0.033905663446966446j;
	z31 0.003217407272727273+0.033905663446966446j;
	z32 0.003217407272727273+0.033905663446966446j;
	z33 0.007339710340908948+0.10161644636363319j;
}

object line_configuration {
	name line_config_193_195;
	z11 0.005433576647725341+0.07522650409090903j;
	z12 0.0023818418181818187+0.02510031221590833j;
	z13 0.0023818418181818187+0.02510031221590833j;
	z21 0.0023818418181818187+0.02510031221590833j;
	z22 0.005433576647725341+0.07522650409090903j;
	z23 0.0023818418181818187+0.02510031221590833j;
	z31 0.0023818418181818187+0.02510031221590833j;
	z32 0.0023818418181818187+0.02510031221590833j;
	z33 0.005433576647725341+0.07522650409090903j;
}

object line_configuration {
	name line_config_256_197;
	z11 0.0025989700568181816+0.03598208772727101j;
	z12 0.0011392745454545455+0.012005896685602478j;
	z13 0.0011392745454545455+0.012005896685602478j;
	z21 0.0011392745454545455+0.012005896685602478j;
	z22 0.0025989700568181816+0.03598208772727101j;
	z23 0.0011392745454545455+0.012005896685602478j;
	z31 0.0011392745454545455+0.012005896685602478j;
	z32 0.0011392745454545455+0.012005896685602478j;
	z33 0.0025989700568181816+0.03598208772727101j;
}

object line_configuration {
	name line_config_197_199;
	z11 0.005626632613634961+0.07789931545454175j;
	z12 0.0024664690909090912+0.025992130871211636j;
	z13 0.0024664690909090912+0.025992130871211636j;
	z21 0.0024664690909090912+0.025992130871211636j;
	z22 0.005626632613634961+0.07789931545454175j;
	z23 0.0024664690909090912+0.025992130871211636j;
	z31 0.0024664690909090912+0.025992130871211636j;
	z32 0.0024664690909090912+0.025992130871211636j;
	z33 0.005626632613634961+0.07789931545454175j;
}

object line_configuration {
	name line_config_199_210;
	z11 0.008441778068177986+0.11687429727272348j;
	z12 0.0037005054545454553+0.03899664602272221j;
	z13 0.0037005054545454553+0.03899664602272221j;
	z21 0.0037005054545454553+0.03899664602272221j;
	z22 0.008441778068177986+0.11687429727272348j;
	z23 0.0037005054545454553+0.03899664602272221j;
	z31 0.0037005054545454553+0.03899664602272221j;
	z32 0.0037005054545454553+0.03899664602272221j;
	z33 0.008441778068177986+0.11687429727272348j;
}

object line_configuration {
	name line_config_86_97;
	z11 0.00015524113636363637+0.0021492745454545457j;
	z12 6.805090909090912e-05+0.0007171337121212123j;
	z13 6.805090909090912e-05+0.0007171337121212123j;
	z21 6.805090909090912e-05+0.0007171337121212123j;
	z22 0.00015524113636363637+0.0021492745454545457j;
	z23 6.805090909090912e-05+0.0007171337121212123j;
	z31 6.805090909090912e-05+0.0007171337121212123j;
	z32 6.805090909090912e-05+0.0007171337121212123j;
	z33 0.00015524113636363637+0.0021492745454545457j;
}

object line_configuration {
	name line_config_213_211;
	z11 0.0039061138636363635+0.054079165454543124j;
	z12 0.0017122690909090912+0.018044224621211122j;
	z13 0.0017122690909090912+0.018044224621211122j;
	z21 0.0017122690909090912+0.018044224621211122j;
	z22 0.0039061138636363635+0.054079165454543124j;
	z23 0.0017122690909090912+0.018044224621211122j;
	z31 0.0017122690909090912+0.018044224621211122j;
	z32 0.0017122690909090912+0.018044224621211122j;
	z33 0.0039061138636363635+0.054079165454543124j;
}

object line_configuration {
	name line_config_215_213;
	z11 0.004698072613636364+0.06504363545454234j;
	z12 0.002059429090909091+0.02170266420454233j;
	z13 0.002059429090909091+0.02170266420454233j;
	z21 0.002059429090909091+0.02170266420454233j;
	z22 0.004698072613636364+0.06504363545454234j;
	z23 0.002059429090909091+0.02170266420454233j;
	z31 0.002059429090909091+0.02170266420454233j;
	z32 0.002059429090909091+0.02170266420454233j;
	z33 0.004698072613636364+0.06504363545454234j;
}

object line_configuration {
	name line_config_214_215;
	z11 0.000630856875+0.008734054999998454j;
	z12 0.00027654000000000003+0.0029142322916666666j;
	z13 0.00027654000000000003+0.0029142322916666666j;
	z21 0.00027654000000000003+0.0029142322916666666j;
	z22 0.000630856875+0.008734054999998454j;
	z23 0.00027654000000000003+0.0029142322916666666j;
	z31 0.00027654000000000003+0.0029142322916666666j;
	z32 0.00027654000000000003+0.0029142322916666666j;
	z33 0.000630856875+0.008734054999998454j;
}

object line_configuration {
	name line_config_216_214;
	z11 0.002781698181818182+0.03851191272727242j;
	z12 0.0012193745454545457+0.012850006060602217j;
	z13 0.0012193745454545457+0.012850006060602217j;
	z21 0.0012193745454545457+0.012850006060602217j;
	z22 0.002781698181818182+0.03851191272727242j;
	z23 0.0012193745454545457+0.012850006060602217j;
	z31 0.0012193745454545457+0.012850006060602217j;
	z32 0.0012193745454545457+0.012850006060602217j;
	z33 0.002781698181818182+0.03851191272727242j;
}

object line_configuration {
	name line_config_210_217;
	z11 0.002740585909090909+0.03794272363636173j;
	z12 0.0012013527272727274+0.012660088636362638j;
	z13 0.0012013527272727274+0.012660088636362638j;
	z21 0.0012013527272727274+0.012660088636362638j;
	z22 0.002740585909090909+0.03794272363636173j;
	z23 0.0012013527272727274+0.012660088636362638j;
	z31 0.0012013527272727274+0.012660088636362638j;
	z32 0.0012013527272727274+0.012660088636362638j;
	z33 0.002740585909090909+0.03794272363636173j;
}

object line_configuration {
	name line_config_211_219;
	z11 0.0023769588068181815+0.03290839772726979j;
	z12 0.0010419545454545456+0.010980319602267917j;
	z13 0.0010419545454545456+0.010980319602267917j;
	z21 0.0010419545454545456+0.010980319602267917j;
	z22 0.0023769588068181815+0.03290839772726979j;
	z23 0.0010419545454545456+0.010980319602267917j;
	z31 0.0010419545454545456+0.010980319602267917j;
	z32 0.0010419545454545456+0.010980319602267917j;
	z33 0.0023769588068181815+0.03290839772726979j;
}

object line_configuration {
	name line_config_74_98;
	z11 0.00017277357954545452+0.002392006818181818j;
	z12 7.573636363636364e-05+0.0007981245265151516j;
	z13 7.573636363636364e-05+0.0007981245265151516j;
	z21 7.573636363636364e-05+0.0007981245265151516j;
	z22 0.00017277357954545452+0.002392006818181818j;
	z23 7.573636363636364e-05+0.0007981245265151516j;
	z31 7.573636363636364e-05+0.0007981245265151516j;
	z32 7.573636363636364e-05+0.0007981245265151516j;
	z33 0.00017277357954545452+0.002392006818181818j;
}

object line_configuration {
	name line_config_219_220;
	z11 0.0007540070454545454+0.01043903818181437j;
	z12 0.00033052363636363637+0.0034831223484848486j;
	z13 0.00033052363636363637+0.0034831223484848486j;
	z21 0.00033052363636363637+0.0034831223484848486j;
	z22 0.0007540070454545454+0.01043903818181437j;
	z23 0.00033052363636363637+0.0034831223484848486j;
	z31 0.00033052363636363637+0.0034831223484848486j;
	z32 0.00033052363636363637+0.0034831223484848486j;
	z33 0.0007540070454545454+0.01043903818181437j;
}

object line_configuration {
	name line_config_77_99;
	z11 0.0001659796022727273+0.002297945909090909j;
	z12 7.275818181818183e-05+0.0007667398674242426j;
	z13 7.275818181818183e-05+0.0007667398674242426j;
	z21 7.275818181818183e-05+0.0007667398674242426j;
	z22 0.0001659796022727273+0.002297945909090909j;
	z23 7.275818181818183e-05+0.0007667398674242426j;
	z31 7.275818181818183e-05+0.0007667398674242426j;
	z32 7.275818181818183e-05+0.0007667398674242426j;
	z33 0.0001659796022727273+0.002297945909090909j;
}

object line_configuration {
	name line_config_75_100;
	z11 0.00014621982954545458+0.0020243768181818183j;
	z12 6.409636363636365e-05+0.0006754599431818183j;
	z13 6.409636363636365e-05+0.0006754599431818183j;
	z21 6.409636363636365e-05+0.0006754599431818183j;
	z22 0.00014621982954545458+0.0020243768181818183j;
	z23 6.409636363636365e-05+0.0006754599431818183j;
	z31 6.409636363636365e-05+0.0006754599431818183j;
	z32 6.409636363636365e-05+0.0006754599431818183j;
	z33 0.00014621982954545458+0.0020243768181818183j;
}

object line_configuration {
	name line_config_254_222;
	z11 0.0021883948295454547+0.03029777681817792j;
	z12 0.0009592963636363636+0.010109251609846897j;
	z13 0.0009592963636363636+0.010109251609846897j;
	z21 0.0009592963636363636+0.010109251609846897j;
	z22 0.0021883948295454547+0.03029777681817792j;
	z23 0.0009592963636363636+0.010109251609846897j;
	z31 0.0009592963636363636+0.010109251609846897j;
	z32 0.0009592963636363636+0.010109251609846897j;
	z33 0.0021883948295454547+0.03029777681817792j;
}

object line_configuration {
	name line_config_251_189;
	z11 0.003686379715909091+0.05103700136363601j;
	z12 0.0016159472727272728+0.017029166571967895j;
	z13 0.0016159472727272728+0.017029166571967895j;
	z21 0.0016159472727272728+0.017029166571967895j;
	z22 0.003686379715909091+0.05103700136363601j;
	z23 0.0016159472727272728+0.017029166571967895j;
	z31 0.0016159472727272728+0.017029166571967895j;
	z32 0.0016159472727272728+0.017029166571967895j;
	z33 0.003686379715909091+0.05103700136363601j;
}

object line_configuration {