#set relax_naming_rules=1
#set profiler=0
#set double_format=%+.12lg
#set complex_format=%+.12lg%+.12lf%c
#set verbose=0

clock {
	timezone PST+8PDT;
	starttime '2001-08-01 12:00:00';
	stoptime '2001-08-01 12:00:03';
}

module tape;

module powerflow;

module generators;

module connection;

object helics_msg {
	name GLD1;
	configure gld_config.json;
}

object regulator_configuration {
	name regulator_config_150_150r;
	raise_taps 16;
	lower_taps 16;
	connect_type 1;
	tap_pos_A 6.0;
	tap_pos_B 6.0;
	tap_pos_C 6.0;
	control_level INDIVIDUAL;
	Control MANUAL;
}

object regulator_configuration {
	name regulator_config_9_9r;
	raise_taps 16;
	lower_taps 16;
	connect_type 1;
	tap_pos_A 0.0;
	tap_pos_B 0.0;
	tap_pos_C 0.0;
	control_level INDIVIDUAL;
	Control MANUAL;
}

object regulator_configuration {
	name regulator_config_25_25r;
	raise_taps 16;
	lower_taps 16;
	connect_type 1;
	tap_pos_A 2.0;
	tap_pos_B 0.0;
	tap_pos_C 0.0;
	control_level INDIVIDUAL;
	Control MANUAL;
}

object regulator_configuration {
	name regulator_config_160_160r;
	raise_taps 16;
	lower_taps 16;
	connect_type 1;
	tap_pos_A 8.0;
	tap_pos_B 2.0;
	tap_pos_C 5.0;
	control_level INDIVIDUAL;
	Control MANUAL;
}

object regulator_configuration {
	name regulator_config_61s_610;
	raise_taps 16;
	lower_taps 16;
	connect_type 1;
	tap_pos_A 0.0;
	tap_pos_B 0.0;
	tap_pos_C 0.0;
	control_level INDIVIDUAL;
	Control MANUAL;
}

object regulator {
	name regulator_150_150r;
	from node_150;
	to node_150r;
	phases ABC;
	configuration regulator_config_150_150r;
}

object regulator {
	name regulator_9_9r;
	from node_9;
	to node_9r;
	phases A;
	configuration regulator_config_9_9r;
}

object regulator {
	name regulator_25_25r;
	from node_25;
	to node_25r;
	phases AC;
	configuration regulator_config_25_25r;
}

object regulator {
	name regulator_160_160r;
	from node_160;
	to node_160r;
	phases ABC;
	configuration regulator_config_160_160r;
}

object regulator {
	name regulator_61s_610;
	from node_61s;
	to node_610;
	phases ABC;
	configuration regulator_config_61s_610;
}

object switch {
	name switch_150r_149;
	from node_150r;
	to node_149;
	phases ABC;
	status CLOSED;
}

object switch {
	name switch_97_197;
	from node_97;
	to node_197;
	phases ABC;
	status CLOSED;
}

object switch {
	name switch_18_135;
	from node_18;
	to node_135;
	phases ABC;
	status CLOSED;
}

object switch {
	name switch_13_152;
	from node_13;
	to node_152;
	phases ABC;
	status CLOSED;
}

object switch {
	name switch_60_160;
	from node_60;
	to node_160;
	phases ABC;
	status CLOSED;
}

object switch {
	name switch_61_61s;
	from node_61;
	to node_61s;
	phases ABC;
	status CLOSED;
}

object line_configuration {
	name line_config_149_1;
	z11 0.03466666679999948+0.08166666679999987j;
	z12 0.011818181999999544+0.038007575599999684j;
	z13 0.011628787999999852+0.029159090799999763j;
	z21 0.011818181999999544+0.038007575599999684j;
	z22 0.03534848479999963+0.07940909079999961j;
	z23 0.011969696799999967+0.03209090919999944j;
	z31 0.011628787999999852+0.029159090799999763j;
	z32 0.011969696799999967+0.03209090919999944j;
	z33 0.03496212119999952+0.08068939399999978j;
}

object line_configuration {
	name line_config_1_2;
	z11 0;
	z12 0;
	z13 0;
	z21 0;
	z22 0.0440549241999999+0.044661458274999656j;
	z23 0;
	z31 0;
	z32 0;
	z33 0;
}

object line_configuration {
	name line_config_1_3;
	z11 0;
	z12 0;
	z13 0;
	z21 0;
	z22 0;
	z23 0;
	z31 0;
	z32 0;
	z33 0.06293560599999978+0.0638020832499996j;
}

object line_configuration {
	name line_config_1_7;
	z11 0.026000000099999615+0.06125000009999961j;
	z12 0.008863636499999945+0.02850568169999962j;
	z13 0.008721590999999888+0.021869318099999965j;
	z21 0.008863636499999945+0.02850568169999962j;
	z22 0.026511363599999865+0.05955681809999956j;
	z23 0.008977272599999687+0.024068181899999437j;
	z31 0.008721590999999888+0.021869318099999965j;
	z32 0.008977272599999687+0.024068181899999437j;
	z33 0.026221590899999498+0.060517045499999984j;
}

object line_configuration {
	name line_config_3_4;
	z11 0;
	z12 0;
	z13 0;
	z21 0;
	z22 0;
	z23 0;
	z31 0;
	z32 0;
	z33 0.050348484799999475+0.051041666599999445j;
}

object line_configuration {
	name line_config_3_5;
	z11 0;
	z12 0;
	z13 0;
	z21 0;
	z22 0;
	z23 0;
	z31 0;
	z32 0;
	z33 0.08181628779999965+0.08294270822499954j;
}

object line_configuration {
	name line_config_5_6;
	z11 0;
	z12 0;
	z13 0;
	z21 0;
	z22 0;
	z23 0;
	z31 0;
	z32 0;
	z33 0.06293560599999978+0.0638020832499996j;
}

object line_configuration {
	name line_config_7_8;
	z11 0.01733333339999974+0.040833333399999935j;
	z12 0.005909090999999772+0.019003787799999557j;
	z13 0.005814393999999926+0.014579545399999594j;
	z21 0.005909090999999772+0.019003787799999557j;
	z22 0.017674242399999523+0.039704545399999513j;
	z23 0.005984848399999984+0.016045454599999433j;
	z31 0.005814393999999926+0.014579545399999594j;
	z32 0.005984848399999984+0.016045454599999433j;
	z33 0.01748106059999947+0.0403446969999996j;
}

object line_configuration {
	name line_config_8_12;
	z11 0;
	z12 0;
	z13 0;
	z21 0;
	z22 0.05664204539999963+0.05742187492499981j;
	z23 0;
	z31 0;
	z32 0;
	z33 0;
}

object line_configuration {
	name line_config_8_9;
	z11 0.05664204539999963+0.05742187492499981j;
	z12 0;
	z13 0;
	z21 0;
	z22 0;
	z23 0;
	z31 0;
	z32 0;
	z33 0;
}

object line_configuration {
	name line_config_8_13;
	z11 0.026000000099999615+0.06125000009999961j;
	z12 0.008863636499999945+0.02850568169999962j;
	z13 0.008721590999999888+0.021869318099999965j;
	z21 0.008863636499999945+0.02850568169999962j;
	z22 0.026511363599999865+0.05955681809999956j;
	z23 0.008977272599999687+0.024068181899999437j;
	z31 0.008721590999999888+0.021869318099999965j;
	z32 0.008977272599999687+0.024068181899999437j;
	z33 0.026221590899999498+0.060517045499999984j;
}

object line_configuration {
	name line_config_9r_14;
	z11 0.10699053019999968+0.10846354152499983j;
	z12 0;
	z13 0;
	z21 0;
	z22 0;
	z23 0;
	z31 0;
	z32 0;
	z33 0;
}

object line_configuration {
	name line_config_13_34;
	z11 0;
	z12 0;
	z13 0;
	z21 0;
	z22 0;
	z23 0;
	z31 0;
	z32 0;
	z33 0.03776136359999975+0.038281249949999874j;
}

object line_configuration {
	name line_config_13_18;
	z11 0.07290624989999948+0.16378124977499953j;
	z12 0.02468749799999988+0.06618750022499946j;
	z13 0.02437500037499971+0.07839062467499996j;
	z21 0.02468749799999988+0.06618750022499946j;
	z22 0.07210937497499963+0.1664218751249995j;
	z23 0.023984375249999836+0.0601406247749999j;
	z31 0.02437500037499971+0.07839062467499996j;
	z32 0.023984375249999836+0.0601406247749999j;
	z33 0.07150000027499966+0.16843750027499993j;
}

object line_configuration {
	name line_config_14_11;
	z11 0.06293560599999978+0.0638020832499996j;
	z12 0;
	z13 0;
	z21 0;
	z22 0;
	z23 0;
	z31 0;
	z32 0;
	z33 0;
}

object line_configuration {
	name line_config_14_10;
	z11 0.06293560599999978+0.0638020832499996j;
	z12 0;
	z13 0;
	z21 0;
	z22 0;
	z23 0;
	z31 0;
	z32 0;
	z33 0;
}

object line_configuration {
	name line_config_34_15;
	z11 0;
	z12 0;
	z13 0;
	z21 0;
	z22 0;
	z23 0;
	z31 0;
	z32 0;
	z33 0.02517424239999945+0.025520833299999723j;
}

object line_configuration {
	name line_config_15_16;
	z11 0;
	z12 0;
	z13 0;
	z21 0;
	z22 0;
	z23 0;
	z31 0;
	z32 0;
	z33 0.09440340899999995+0.09570312487499967j;
}

object line_configuration {
	name line_config_15_17;
	z11 0;
	z12 0;
	z13 0;
	z21 0;
	z22 0;
	z23 0;
	z31 0;
	z32 0;
	z33 0.0881098483999998+0.0893229165499999j;
}

object line_configuration {
	name line_config_18_19;
	z11 0.06293560599999978+0.0638020832499996j;
	z12 0;
	z13 0;
	z21 0;
	z22 0;
	z23 0;
	z31 0;
	z32 0;
	z33 0;
}

object line_configuration {
	name line_config_18_21;
	z11 0.026511363599999865+0.05955681809999956j;
	z12 0.008977271999999537+0.024068181899999437j;
	z13 0.008863636499999945+0.02850568169999962j;
	z21 0.008977271999999537+0.024068181899999437j;
	z22 0.026221590899999498+0.060517045499999984j;
	z23 0.008721590999999888+0.021869318099999965j;
	z31 0.008863636499999945+0.02850568169999962j;
	z32 0.008721590999999888+0.021869318099999965j;
	z33 0.026000000099999615+0.06125000009999961j;
}

object line_configuration {
	name line_config_19_20;
	z11 0.08181628779999965+0.08294270822499954j;
	z12 0;
	z13 0;
	z21 0;
	z22 0;
	z23 0;
	z31 0;
	z32 0;
	z33 0;
}

object line_configuration {
	name line_config_21_22;
	z11 0;
	z12 0;
	z13 0;
	z21 0;
	z22 0.1321647725999997+0.13398437482499956j;
	z23 0;
	z31 0;
	z32 0;
	z33 0;
}

object line_configuration {
	name line_config_21_23;
	z11 0.022092802999999984+0.04963068174999954j;
	z12 0.007481059999999806+0.02005681824999943j;
	z13 0.00738636374999986+0.02375473474999959j;
	z21 0.007481059999999806+0.02005681824999943j;
	z22 0.021851325749999484+0.0504308712499995j;
	z23 0.007267992499999618+0.01822443174999978j;
	z31 0.00738636374999986+0.02375473474999959j;
	z32 0.007267992499999618+0.01822443174999978j;
	z33 0.021666666749999966+0.05104166674999977j;
}

object line_configuration {
	name line_config_23_24;
	z11 0;
	z12 0;
	z13 0;
	z21 0;
	z22 0;
	z23 0;
	z31 0;
	z32 0;
	z33 0.13845833319999987+0.14036458314999992j;
}

object line_configuration {
	name line_config_23_25;
	z11 0.024302083299999635+0.05459374992499984j;
	z12 0.00822916599999996+0.022062500074999436j;
	z13 0.008125000124999903+0.026130208224999604j;
	z21 0.00822916599999996+0.022062500074999436j;
	z22 0.02403645832499949+0.05547395837499946j;
	z23 0.007994791749999753+0.020046874924999583j;
	z31 0.008125000124999903+0.026130208224999604j;
	z32 0.007994791749999753+0.020046874924999583j;
	z33 0.0238333334249995+0.05614583342499998j;
}

object line_configuration {
	name line_config_25r_26;
	z11 0.030333333449999837+0.07145833344999945j;
	z12 0;
	z13 0.010175189499999581+0.025514204449999574j;
	z21 0;
	z22 0;
	z23 0;
	z31 0.010175189499999581+0.025514204449999574j;
	z32 0;
	z33 0.030591856049999512+0.07060321974999988j;
}

object line_configuration {
	name line_config_25_28;
	z11 0.017674242399999523+0.039704545399999513j;
	z12 0.005984847999999499+0.016045454599999433j;
	z13 0.005909090999999772+0.019003787799999557j;
	z21 0.005984847999999499+0.016045454599999433j;
	z22 0.01748106059999947+0.0403446969999996j;
	z23 0.005814393999999926+0.014579545399999594j;
	z31 0.005909090999999772+0.019003787799999557j;
	z32 0.005814393999999926+0.014579545399999594j;
	z33 0.01733333339999974+0.040833333399999935j;
}

object line_configuration {
	name line_config_26_27;
	z11 0.0238333334249995+0.05614583342499998j;
	z12 0;
	z13 0.007994791749999753+0.020046874924999583j;
	z21 0;
	z22 0;
	z23 0;
	z31 0.007994791749999753+0.020046874924999583j;
	z32 0;
	z33 0.02403645832499949+0.05547395837499946j;
}

object line_configuration {
	name line_config_26_31;
	z11 0;
	z12 0;
	z13 0;
	z21 0;
	z22 0;
	z23 0;
	z31 0;
	z32 0;
	z33 0.05664204539999963+0.05742187492499981j;
}

object line_configuration {
	name line_config_27_33;
	z11 0.12587121199999957+0.12760416649999975j;
	z12 0;
	z13 0;
	z21 0;
	z22 0;
	z23 0;
	z31 0;
	z32 0;
	z33 0;
}

object line_configuration {
	name line_config_28_29;
	z11 0.026511363599999865+0.05955681809999956j;
	z12 0.008977271999999537+0.024068181899999437j;
	z13 0.008863636499999945+0.02850568169999962j;
	z21 0.008977271999999537+0.024068181899999437j;
	z22 0.026221590899999498+0.060517045499999984j;
	z23 0.008721590999999888+0.021869318099999965j;
	z31 0.008863636499999945+0.02850568169999962j;
	z32 0.008721590999999888+0.021869318099999965j;
	z33 0.026000000099999615+0.06125000009999961j;
}

object line_configuration {
	name line_config_29_30;
	z11 0.030929924199999747+0.06948295444999958j;
	z12 0.010473483999999844+0.02807954554999944j;
	z13 0.010340909249999457+0.033256628649999655j;
	z21 0.010473483999999844+0.02807954554999944j;
	z22 0.030591856049999512+0.07060321974999988j;
	z23 0.010175189499999581+0.025514204449999574j;
	z31 0.010340909249999457+0.033256628649999655j;
	z32 0.010175189499999581+0.025514204449999574j;
	z33 0.030333333449999837+0.07145833344999945j;
}

object line_configuration {
	name line_config_30_250;
	z11 0.017674242399999523+0.039704545399999513j;
	z12 0.005984847999999499+0.016045454599999433j;
	z13 0.005909090999999772+0.019003787799999557j;
	z21 0.005984847999999499+0.016045454599999433j;
	z22 0.01748106059999947+0.0403446969999996j;
	z23 0.005814393999999926+0.014579545399999594j;
	z31 0.005909090999999772+0.019003787799999557j;
	z32 0.005814393999999926+0.014579545399999594j;
	z33 0.01733333339999974+0.040833333399999935j;
}

object line_configuration {
	name line_config_31_32;
	z11 0;
	z12 0;
	z13 0;
	z21 0;
	z22 0;
	z23 0;
	z31 0;
	z32 0;
	z33 0.0755227271999995+0.07656249989999975j;
}

object line_configuration {
	name line_config_135_35;
	z11 0.03277698862499952+0.07564630687499983j;
	z12 0.011221590749999897+0.03008522737499944j;
	z13 0.010901988749999716+0.027336647624999953j;
	z21 0.011221590749999897+0.03008522737499944j;
	z22 0.03313920449999998+0.07444602262499989j;
	z23 0.0110795456249995+0.03563210212499967j;
	z31 0.010901988749999716+0.027336647624999953j;
	z32 0.0110795456249995+0.03563210212499967j;
	z33 0.03250000012499995+0.07656250012499966j;
}

object line_configuration {
	name line_config_35_36;
	z11 0.056333333549999455+0.13270833354999964j;
	z12 0.01889678049999947+0.047383522549999536j;
	z13 0;
	z21 0.01889678049999947+0.047383522549999536j;
	z22 0.05681344694999958+0.13112026524999984j;
	z23 0;
	z31 0;
	z32 0;
	z33 0;
}

object line_configuration {
	name line_config_35_40;
	z11 0.021666666749999966+0.05104166674999977j;
	z12 0.00738636374999986+0.02375473474999959j;
	z13 0.007267992499999618+0.01822443174999978j;
	z21 0.00738636374999986+0.02375473474999959j;
	z22 0.022092802999999984+0.04963068174999954j;
	z23 0.007481060499999546+0.02005681824999943j;
	z31 0.007267992499999618+0.01822443174999978j;
	z32 0.007481060499999546+0.02005681824999943j;
	z33 0.021851325749999484+0.0504308712499995j;
}

object line_configuration {
	name line_config_36_37;
	z11 0.0755227271999995+0.07656249989999975j;
	z12 0;
	z13 0;
	z21 0;
	z22 0;
	z23 0;
	z31 0;
	z32 0;
	z33 0;
}

object line_configuration {
	name line_config_36_38;
	z11 0;
	z12 0;
	z13 0;
	z21 0;
	z22 0.06293560599999978+0.0638020832499996j;
	z23 0;
	z31 0;
	z32 0;
	z33 0;
}

object line_configuration {
	name line_config_38_39;
	z11 0;
	z12 0;
	z13 0;
	z21 0;
	z22 0.08181628779999965+0.08294270822499954j;
	z23 0;
	z31 0;
	z32 0;
	z33 0;
}

object line_configuration {
	name line_config_40_41;
	z11 0;
	z12 0;
	z13 0;
	z21 0;
	z22 0;
	z23 0;
	z31 0;
	z32 0;
	z33 0.08181628779999965+0.08294270822499954j;
}

object line_configuration {
	name line_config_40_42;
	z11 0.021666666749999966+0.05104166674999977j;
	z12 0.00738636374999986+0.02375473474999959j;
	z13 0.007267992499999618+0.01822443174999978j;
	z21 0.00738636374999986+0.02375473474999959j;
	z22 0.022092802999999984+0.04963068174999954j;
	z23 0.007481060499999546+0.02005681824999943j;
	z31 0.007267992499999618+0.01822443174999978j;
	z32 0.007481060499999546+0.02005681824999943j;
	z33 0.021851325749999484+0.0504308712499995j;
}

object line_configuration {
	name line_config_42_43;
	z11 0;
	z12 0;
	z13 0;
	z21 0;
	z22 0.12587121199999957+0.12760416649999975j;
	z23 0;
	z31 0;
	z32 0;
	z33 0;
}

object line_configuration {
	name line_config_42_44;
	z11 0.01733333339999974+0.040833333399999935j;
	z12 0.005909090999999772+0.019003787799999557j;
	z13 0.005814393999999926+0.014579545399999594j;
	z21 0.005909090999999772+0.019003787799999557j;
	z22 0.017674242399999523+0.039704545399999513j;
	z23 0.005984848399999984+0.016045454599999433j;
	z31 0.005814393999999926+0.014579545399999594j;
	z32 0.005984848399999984+0.016045454599999433j;
	z33 0.01748106059999947+0.0403446969999996j;
}

object line_configuration {
	name line_config_44_45;
	z11 0.050348484799999475+0.051041666599999445j;
	z12 0;
	z13 0;
	z21 0;
	z22 0;
	z23 0;
	z31 0;
	z32 0;
	z33 0;
}

object line_configuration {
	name line_config_44_47;
	z11 0.021666666749999966+0.05104166674999977j;
	z12 0.00738636374999986+0.02375473474999959j;
	z13 0.007267992499999618+0.01822443174999978j;
	z21 0.00738636374999986+0.02375473474999959j;
	z22 0.022092802999999984+0.04963068174999954j;
	z23 0.007481060499999546+0.02005681824999943j;
	z31 0.007267992499999618+0.01822443174999978j;
	z32 0.007481060499999546+0.02005681824999943j;
	z33 0.021851325749999484+0.0504308712499995j;
}

object line_configuration {
	name line_config_45_46;
	z11 0.0755227271999995+0.07656249989999975j;
	z12 0;
	z13 0;
	z21 0;
	z22 0;
	z23 0;
	z31 0;
	z32 0;
	z33 0;
}

object line_configuration {
	name line_config_47_48;
	z11 0.013110795449999461+0.0302585227499997j;
	z12 0.004488636299999843+0.01203409094999943j;
	z13 0.004360795499999656+0.010934659049999983j;
	z21 0.004488636299999843+0.01203409094999943j;
	z22 0.013255681799999641+0.029778409049999493j;
	z23 0.004431818249999685+0.014252840849999523j;
	z31 0.004360795499999656+0.010934659049999983j;
	z32 0.004431818249999685+0.014252840849999523j;
	z33 0.013000000049999518+0.030625000049999514j;
}

object line_configuration {
	name line_config_47_49;
	z11 0.021851325749999484+0.0504308712499995j;
	z12 0.007481060499999546+0.02005681824999943j;
	z13 0.007267992499999618+0.01822443174999978j;
	z21 0.007481060499999546+0.02005681824999943j;
	z22 0.022092802999999984+0.04963068174999954j;
	z23 0.00738636374999986+0.02375473474999959j;
	z31 0.007267992499999618+0.01822443174999978j;
	z32 0.00738636374999986+0.02375473474999959j;
	z33 0.021666666749999966+0.05104166674999977j;
}

object line_configuration {
	name line_config_49_50;
	z11 0.021851325749999484+0.0504308712499995j;
	z12 0.007481060499999546+0.02005681824999943j;
	z13 0.007267992499999618+0.01822443174999978j;
	z21 0.007481060499999546+0.02005681824999943j;
	z22 0.022092802999999984+0.04963068174999954j;
	z23 0.00738636374999986+0.02375473474999959j;
	z31 0.007267992499999618+0.01822443174999978j;
	z32 0.00738636374999986+0.02375473474999959j;
	z33 0.021666666749999966+0.05104166674999977j;
}

object line_configuration {
	name line_config_50_51;
	z11 0.021851325749999484+0.0504308712499995j;
	z12 0.007481060499999546+0.02005681824999943j;
	z13 0.007267992499999618+0.01822443174999978j;
	z21 0.007481060499999546+0.02005681824999943j;
	z22 0.022092802999999984+0.04963068174999954j;
	z23 0.00738636374999986+0.02375473474999959j;
	z31 0.007267992499999618+0.01822443174999978j;
	z32 0.00738636374999986+0.02375473474999959j;
	z33 0.021666666749999966+0.05104166674999977j;
}

object line_configuration {
	name line_config_51_151;
	z11 0.043702651499999544+0.10086174249999959j;
	z12 0.01496212099999967+0.040113636499999446j;
	z13 0.014535984999999814+0.03644886349999956j;
	z21 0.01496212099999967+0.040113636499999446j;
	z22 0.04418560599999997+0.09926136349999964j;
	z23 0.01477272749999972+0.04750946949999975j;
	z31 0.014535984999999814+0.03644886349999956j;
	z32 0.01477272749999972+0.04750946949999975j;
	z33 0.04333333349999993+0.10208333349999954j;
}

object line_configuration {
	name line_config_152_52;
	z11 0.03466666679999948+0.08166666679999987j;
	z12 0.011818181999999544+0.038007575599999684j;
	z13 0.011628787999999852+0.029159090799999763j;
	z21 0.011818181999999544+0.038007575599999684j;
	z22 0.03534848479999963+0.07940909079999961j;
	z23 0.011969696799999967+0.03209090919999944j;
	z31 0.011628787999999852+0.029159090799999763j;
	z32 0.011969696799999967+0.03209090919999944j;
	z33 0.03496212119999952+0.08068939399999978j;
}

object line_configuration {
	name line_config_52_53;
	z11 0.01733333339999974+0.040833333399999935j;
	z12 0.005909090999999772+0.019003787799999557j;
	z13 0.005814393999999926+0.014579545399999594j;
	z21 0.005909090999999772+0.019003787799999557j;
	z22 0.017674242399999523+0.039704545399999513j;
	z23 0.005984848399999984+0.016045454599999433j;
	z31 0.005814393999999926+0.014579545399999594j;
	z32 0.005984848399999984+0.016045454599999433j;
	z33 0.01748106059999947+0.0403446969999996j;
}

object line_configuration {
	name line_config_53_54;
	z11 0.010833333374999983+0.025520833374999885j;
	z12 0.0036931818749996407+0.011877367374999505j;
	z13 0.0036339962499995207+0.0091122158749996j;
	z21 0.0036931818749996407+0.011877367374999505j;
	z22 0.011046401499999992+0.02481534087499977j;
	z23 0.003740530249999773+0.01002840912499943j;
	z31 0.0036339962499995207+0.0091122158749996j;
	z32 0.003740530249999773+0.01002840912499943j;
	z33 0.010925662874999454+0.02521543562499975j;
}

object line_configuration {
	name line_config_54_55;
	z11 0.0238333334249995+0.05614583342499998j;
	z12 0.008125000124999903+0.026130208224999604j;
	z13 0.007994791749999753+0.020046874924999583j;
	z21 0.008125000124999903+0.026130208224999604j;
	z22 0.024302083299999635+0.05459374992499984j;
	z23 0.008229166549999617+0.022062500074999436j;
	z31 0.007994791749999753+0.020046874924999583j;
	z32 0.008229166549999617+0.022062500074999436j;
	z33 0.02403645832499949+0.05547395837499946j;
}

object line_configuration {
	name line_config_54_57;
	z11 0.030591856049999512+0.07060321974999988j;
	z12 0.010175189499999581+0.025514204449999574j;
	z13 0.010473484699999827+0.02807954554999944j;
	z21 0.010175189499999581+0.025514204449999574j;
	z22 0.030333333449999837+0.07145833344999945j;
	z23 0.010340909249999457+0.033256628649999655j;
	z31 0.010473484699999827+0.02807954554999944j;
	z32 0.010340909249999457+0.033256628649999655j;
	z33 0.030929924199999747+0.06948295444999958j;
}

object line_configuration {
	name line_config_55_56;
	z11 0.0238333334249995+0.05614583342499998j;
	z12 0.008125000124999903+0.026130208224999604j;
	z13 0.007994791749999753+0.020046874924999583j;
	z21 0.008125000124999903+0.026130208224999604j;
	z22 0.024302083299999635+0.05459374992499984j;
	z23 0.008229166549999617+0.022062500074999436j;
	z31 0.007994791749999753+0.020046874924999583j;
	z32 0.008229166549999617+0.022062500074999436j;
	z33 0.02403645832499949+0.05547395837499946j;
}

object line_configuration {
	name line_config_57_58;
	z11 0;
	z12 0;
	z13 0;
	z21 0;
	z22 0.06293560599999978+0.0638020832499996j;
	z23 0;
	z31 0;
	z32 0;
	z33 0;
}

object line_configuration {
	name line_config_57_60;
	z11 0.0655539772499996+0.15129261374999967j;
	z12 0.021803977499999433+0.054673295249999906j;
	z13 0.022443181499999795+0.06017045474999945j;
	z21 0.021803977499999433+0.054673295249999906j;
	z22 0.0650000002499999+0.1531250002499999j;
	z23 0.02215909124999958+0.07126420424999991j;
	z31 0.022443181499999795+0.06017045474999945j;
	z32 0.02215909124999958+0.07126420424999991j;
	z33 0.06627840899999995+0.14889204524999977j;
}

object line_configuration {
	name line_config_58_59;
	z11 0;
	z12 0;
	z13 0;
	z21 0;
	z22 0.06293560599999978+0.0638020832499996j;
	z23 0;
	z31 0;
	z32 0;
	z33 0;
}

object line_configuration {
	name line_config_60_61;
	z11 0.04860416659999984+0.10918749984999968j;
	z12 0.016250000249999806+0.05226041644999979j;
	z13 0.01645833309999981+0.04412500014999945j;
	z21 0.016250000249999806+0.05226041644999979j;
	z22 0.04766666684999958+0.11229166684999996j;
	z23 0.015989583499999505+0.04009374984999974j;
	z31 0.01645833309999981+0.04412500014999945j;
	z32 0.015989583499999505+0.04009374984999974j;
	z33 0.04807291664999956+0.11094791674999947j;
}

object line_configuration {
	name line_config_60_62;
	z11 0.07201231049999965+0.03561079549999973j;
	z12 0.024611742499999954+0.013139204499999788j;
	z13 0.023314393999999943+0.010213068249999603j;
	z21 0.024611742499999954+0.013139204499999788j;
	z22 0.07258049249999989+0.03391098474999994j;
	z23 0.024611742499999954+0.013139204499999788j;
	z31 0.023314393999999943+0.010213068249999603j;
	z32 0.024611742499999954+0.013139204499999788j;
	z33 0.07201231049999965+0.03561079549999973j;
}

object line_configuration {
	name line_config_62_63;
	z11 0.05040861734999959+0.024927556849999522j;
	z12 0.017228219749999968+0.009197443149999505j;
	z13 0.01632007579999944+0.00714914777499955j;
	z21 0.017228219749999968+0.009197443149999505j;
	z22 0.05080634474999951+0.023737689324999676j;
	z23 0.017228219749999968+0.009197443149999505j;
	z31 0.01632007579999944+0.00714914777499955j;
	z32 0.017228219749999968+0.009197443149999505j;
	z33 0.05040861734999959+0.024927556849999522j;
}

object line_configuration {
	name line_config_63_64;
	z11 0.10081723469999974+0.04985511369999963j;
	z12 0.034456439499999936+0.018394886299999587j;
	z13 0.03264015159999946+0.014298295549999675j;
	z21 0.034456439499999936+0.018394886299999587j;
	z22 0.1016126894999996+0.04747537864999992j;
	z23 0.034456439499999936+0.018394886299999587j;
	z31 0.03264015159999946+0.014298295549999675j;
	z32 0.034456439499999936+0.018394886299999587j;
	z33 0.10081723469999974+0.04985511369999963j;
}

object line_configuration {
	name line_config_64_65;
	z11 0.12242092784999982+0.06053835234999983j;
	z12 0.04183996224999992+0.022336647649999868j;
	z13 0.03963446979999997+0.01736221602499973j;
	z21 0.04183996224999992+0.022336647649999868j;
	z22 0.12338683724999998+0.057648674074999615j;
	z23 0.04183996224999992+0.022336647649999868j;
	z31 0.03963446979999997+0.01736221602499973j;
	z32 0.04183996224999992+0.022336647649999868j;
	z33 0.12242092784999982+0.06053835234999983j;
}

object line_configuration {
	name line_config_65_66;
	z11 0.09361600364999971+0.046294034149999934j;
	z12 0.03199526524999994+0.01708096584999949j;
	z13 0.030308712199999872+0.01327698872499966j;
	z21 0.03199526524999994+0.01708096584999949j;
	z22 0.09435464024999968+0.044084280174999636j;
	z23 0.03199526524999994+0.01708096584999949j;
	z31 0.030308712199999872+0.01327698872499966j;
	z32 0.03199526524999994+0.01708096584999949j;
	z33 0.09361600364999971+0.046294034149999934j;
}

object line_configuration {
	name line_config_160r_67;
	z11 0.030333333449999837+0.07145833344999945j;
	z12 0.010175189499999581+0.025514204449999574j;
	z13 0.010340909249999457+0.033256628649999655j;
	z21 0.010175189499999581+0.025514204449999574j;
	z22 0.030591856049999512+0.07060321974999988j;
	z23 0.010473484699999827+0.02807954554999944j;
	z31 0.010340909249999457+0.033256628649999655j;
	z32 0.010473484699999827+0.02807954554999944j;
	z33 0.030929924199999747+0.06948295444999958j;
}

object line_configuration {
	name line_config_67_68;
	z11 0.050348484799999475+0.051041666599999445j;
	z12 0;
	z13 0;
	z21 0;
	z22 0;
	z23 0;
	z31 0;
	z32 0;
	z33 0;
}

object line_configuration {
	name line_config_67_72;
	z11 0.02403645832499949+0.05547395837499946j;
	z12 0.007994791749999753+0.020046874924999583j;
	z13 0.008229166549999617+0.022062500074999436j;
	z21 0.007994791749999753+0.020046874924999583j;
	z22 0.0238333334249995+0.05614583342499998j;
	z23 0.008125000124999903+0.026130208224999604j;
	z31 0.008229166549999617+0.022062500074999436j;
	z32 0.008125000124999903+0.026130208224999604j;
	z33 0.024302083299999635+0.05459374992499984j;
}

object line_configuration {
	name line_config_67_97;
	z11 0.021851325749999484+0.0504308712499995j;
	z12 0.007267992499999618+0.01822443174999978j;
	z13 0.007481060499999546+0.02005681824999943j;
	z21 0.007267992499999618+0.01822443174999978j;
	z22 0.021666666749999966+0.05104166674999977j;
	z23 0.00738636374999986+0.02375473474999959j;
	z31 0.007481060499999546+0.02005681824999943j;
	z32 0.00738636374999986+0.02375473474999959j;
	z33 0.022092802999999984+0.04963068174999954j;
}

object line_configuration {
	name line_config_68_69;
	z11 0.06922916659999993+0.07018229157499996j;
	z12 0;
	z13 0;
	z21 0;
	z22 0;
	z23 0;
	z31 0;
	z32 0;
	z33 0;
}

object line_configuration {
	name line_config_69_70;
	z11 0.08181628779999965+0.08294270822499954j;
	z12 0;
	z13 0;
	z21 0;
	z22 0;
	z23 0;
	z31 0;
	z32 0;
	z33 0;
}

object line_configuration {
	name line_config_70_71;
	z11 0.06922916659999993+0.07018229157499996j;
	z12 0;
	z13 0;
	z21 0;
	z22 0;
	z23 0;
	z31 0;
	z32 0;
	z33 0;
}

object line_configuration {
	name line_config_72_73;
	z11 0;
	z12 0;
	z13 0;
	z21 0;
	z22 0;
	z23 0;
	z31 0;
	z32 0;
	z33 0.06922916659999993+0.07018229157499996j;
}

object line_configuration {
	name line_config_72_76;
	z11 0.01748106059999947+0.0403446969999996j;
	z12 0.005814393999999926+0.014579545399999594j;
	z13 0.005984848399999984+0.016045454599999433j;
	z21 0.005814393999999926+0.014579545399999594j;
	z22 0.01733333339999974+0.040833333399999935j;
	z23 0.005909090999999772+0.019003787799999557j;
	z31 0.005984848399999984+0.016045454599999433j;
	z32 0.005909090999999772+0.019003787799999557j;
	z33 0.017674242399999523+0.039704545399999513j;
}

object line_configuration {
	name line_config_73_74;
	z11 0;
	z12 0;
	z13 0;
	z21 0;
	z22 0;
	z23 0;
	z31 0;
	z32 0;
	z33 0.0881098483999998+0.0893229165499999j;
}

object line_configuration {
	name line_config_74_75;
	z11 0;
	z12 0;
	z13 0;
	z21 0;
	z22 0;
	z23 0;
	z31 0;
	z32 0;
	z33 0.10069696959999952+0.10208333319999947j;
}

object line_configuration {
	name line_config_76_77;
	z11 0.03466666679999948+0.08166666679999987j;
	z12 0.011628787999999852+0.029159090799999763j;
	z13 0.011818181999999544+0.038007575599999684j;
	z21 0.011628787999999852+0.029159090799999763j;
	z22 0.03496212119999952+0.08068939399999978j;
	z23 0.011969696799999967+0.03209090919999944j;
	z31 0.011818181999999544+0.038007575599999684j;
	z32 0.011969696799999967+0.03209090919999944j;
	z33 0.03534848479999963+0.07940909079999961j;
}

object line_configuration {
	name line_config_76_86;
	z11 0.06118371209999959+0.14120643949999975j;
	z12 0.020350378999999738+0.05102840889999972j;
	z13 0.020946969399999654+0.056159091099999454j;
	z21 0.020350378999999738+0.05102840889999972j;
	z22 0.06066666689999967+0.14291666689999946j;
	z23 0.02068181849999949+0.06651325729999988j;
	z31 0.020946969399999654+0.056159091099999454j;
	z32 0.02068181849999949+0.06651325729999988j;
	z33 0.061859848399999494+0.13896590889999974j;
}

object line_configuration {
	name line_config_77_78;
	z11 0.00866666669999987+0.02041666669999968j;
	z12 0.002907196999999963+0.007289772699999797j;
	z13 0.0029545454999995975+0.009501893899999489j;
	z21 0.002907196999999963+0.007289772699999797j;
	z22 0.008740530299999449+0.0201723484999998j;